version 2
1
2
.dc VBT1 4 6 1{return}.kicad adjustpaths{return}.save all{return}.probe alli
4
1
V(Net-_BT2-+_)
 
1
V(Net-_Q1-B_)
 
1
V(Net-_Q1-C_)
 
1
V(Net-_Q1-E_)
 
