version 2
1
2
.dc VBT1 2 4 1{return}.kicad adjustpaths{return}.save all{return}.probe alli
3
2
I(R1)
 
2
I(R2)
 
2
I(R3)
 
