version 2
1
9
.tran 100m 10{return}.kicad adjustpaths{return}.save all{return}.probe alli
2
2
I(R1)
 
1
V(/VC1)
 
